cases/case_MV.py
"""Power flow data for 10 nodes test case.
"""

from numpy import array

class case_():

  def __init__(self):
    pass

  def case(self):

    ppc = {"version": '2'}

    ##-----  Power Flow Data  -----##
    ## system MVA base

    ppc["baseMVA"] = 1
    
    VMAX = 21
    VMIN = 19
    
    ppc["VMAX"] = VMAX
    ppc["VMIN"] = VMIN

    baseKV = 1;
    
    ## bus data
    # bus_i type Pd Qd Gs Bs area Vm Va baseKV zone Vmax Vmin
    ppc["bus"] = array([
		[1,  3,	0.0,	0.0,	0.000,	0.000,	1,	1,	0,	baseKV,	1,	VMAX,	VMIN]	,
    [2,  1,	0.0,	0.0,	0.000,	0.000,	1,	1,	0,	baseKV,	1,	VMAX,	VMIN]	,
		[3,  1,	0.0,	0.0,	0.000,	0.000,	1,	1,	0,	baseKV,	1,	VMAX,	VMIN]	,
		[4,  1,	0.0,	0.0,	0.000,	0.000,	1,	1,	0,	baseKV,	1,	VMAX,	VMIN]	,
		[5,  1,	0.0,	0.0,	0.000,	0.000,	1,	1,	0,	baseKV,	1,	VMAX,	VMIN]	,
		[6,  1,	0.0,	0.0,	0.000,	0.000,	1,	1,	0,	baseKV,	1,	VMAX,	VMIN]	,
    [7,  1,	0.0,	0.0,	0.000,	0.000,	1,	1,	0,	baseKV,	1,	VMAX,	VMIN]	,
		[8,  1,	0.0,	0.0,	0.000,	0.000,	1,	1,	0,	baseKV,	1,	VMAX,	VMIN]	,
		[9,  1,	0.0,	0.0,	0.000,	0.000,	1,	1,	0,	baseKV,	1,	VMAX,	VMIN]	,
    [10, 1,	0.0,	0.0,	0.000,	0.000,	1,	1,	0,	baseKV,	1,	VMAX,	VMIN] ,
    [11,  1,	0.0,	0.0,	0.000,	0.000,	1,	1,	0,	baseKV,	1,	VMAX,	VMIN]	,
    [12,  1,	0.0,	0.0,	0.000,	0.000,	1,	1,	0,	baseKV,	1,	VMAX,	VMIN]	,
		[13,  1,	0.0,	0.0,	0.000,	0.000,	1,	1,	0,	baseKV,	1,	VMAX,	VMIN]	,
		[14,  1,	0.0,	0.0,	0.000,	0.000,	1,	1,	0,	baseKV,	1,	VMAX,	VMIN]	,
		[15,  1,	0.0,	0.0,	0.000,	0.000,	1,	1,	0,	baseKV,	1,	VMAX,	VMIN]	,
		[16,  1,	0.0,	0.0,	0.000,	0.000,	1,	1,	0,	baseKV,	1,	VMAX,	VMIN]	,
    [17,  1,	0.0,	0.0,	0.000,	0.000,	1,	1,	0,	baseKV,	1,	VMAX,	VMIN]	,
		[18,  1,	0.0,	0.0,	0.000,	0.000,	1,	1,	0,	baseKV,	1,	VMAX,	VMIN]	,
		[19,  1,	0.0,	0.0,	0.000,	0.000,	1,	1,	0,	baseKV,	1,	VMAX,	VMIN]	,
    [20,  1,	0.0,	0.0,	0.000,	0.000,	1,	1,	0,	baseKV,	1,	VMAX,	VMIN] ,
    [21,  1,	0.0,	0.0,	0.000,	0.000,	1,	1,	0,	baseKV,	1,	VMAX,	VMIN]	,
    [22,  1,	0.0,	0.0,	0.000,	0.000,	1,	1,	0,	baseKV,	1,	VMAX,	VMIN]	,
		[23,  1,	0.0,	0.0,	0.000,	0.000,	1,	1,	0,	baseKV,	1,	VMAX,	VMIN]	,
		[24,  1,	0.0,	0.0,	0.000,	0.000,	1,	1,	0,	baseKV,	1,	VMAX,	VMIN]	,
		[25,  1,	0.0,	0.0,	0.000,	0.000,	1,	1,	0,	baseKV,	1,	VMAX,	VMIN]	,
		[26,  1,	0.0,	0.0,	0.000,	0.000,	1,	1,	0,	baseKV,	1,	VMAX,	VMIN]	,
    [27,  1,	0.0,	0.0,	0.000,	0.000,	1,	1,	0,	baseKV,	1,	VMAX,	VMIN]	,
		[28,  1,	0.0,	0.0,	0.000,	0.000,	1,	1,	0,	baseKV,	1,	VMAX,	VMIN]	,
		[29,  1,	0.0,	0.0,	0.000,	0.000,	1,	1,	0,	baseKV,	1,	VMAX,	VMIN]	,
    [30,  1,	0.0,	0.0,	0.000,	0.000,	1,	1,	0,	baseKV,	1,	VMAX,	VMIN] ,
    [31,  1,	0.0,	0.0,	0.000,	0.000,	1,	1,	0,	baseKV,	1,	VMAX,	VMIN]	,
    [32,  1,	0.0,	0.0,	0.000,	0.000,	1,	1,	0,	baseKV,	1,	VMAX,	VMIN]	,
		[33,  1,	0.0,	0.0,	0.000,	0.000,	1,	1,	0,	baseKV,	1,	VMAX,	VMIN]	,
		[34,  1,	0.0,	0.0,	0.000,	0.000,	1,	1,	0,	baseKV,	1,	VMAX,	VMIN]	,
		[35,  1,	0.0,	0.0,	0.000,	0.000,	1,	1,	0,	baseKV,	1,	VMAX,	VMIN]	,
		[36,  1,	0.0,	0.0,	0.000,	0.000,	1,	1,	0,	baseKV,	1,	VMAX,	VMIN]	,
    [37,  1,	0.0,	0.0,	0.000,	0.000,	1,	1,	0,	baseKV,	1,	VMAX,	VMIN]	
    ])

    ## generator data
    # bus, Pg, Qg, Qmax, Qmin, Vg, mBase, status, Pmax, Pmin, Pc1, Pc2,
    # Qc1min, Qc1max, Qc2min, Qc2max, ramp_agc, ramp_10, ramp_30, ramp_q, apf
    ppc["gen"] = array([
        [1, 0,	0,	200, -200,   1,	 1,	 1,  200, -200,	0,	0,	0,	0,	0,	0,	0,	0,	0,	0,	0],
        [2, 1,	0,	200, -200,	 1,	 1,	 1,	 0,  	0,	0,	0,	0,	0,	0,	0,	0,	0,	0,	0,	0],
		    [14, 5,	0,	200, -200,	 1,	 1,	 1,	 0,  	0,	0,	0,	0,	0,	0,	0,	0,	0,	0,	0,	0],
  		  [26, 5,	0,	200, -200,	 1,	 1,	 1,	 0,  	0,	0,	0,	0,	0,	0,	0,	0,	0,	0,	0,	0],
        [31, 2, 0,	200, -200,	 1,	 1,	 1,	 0,  	0,	0,	0,	0,	0,	0,	0,	0,	0,	0,	0,	0],
        [32, 1,	0,	200, -200,	 1,	 1,	 1,	 0,  	0,	0,	0,	0,	0,	0,	0,	0,	0,	0,	0,	0],
        [33, 5,	0,	200, -200,	 1,	 1,	 1,	 0,  	0,	0,	0,	0,	0,	0,	0,	0,	0,	0,	0,	0],
        [34, 2,	0,	200, -200,	 1,	 1,	 1,	 0,  	0,	0,	0,	0,	0,	0,	0,	0,	0,	0,	0,	0],
		    [35, 3,	0,	200, -200,	 1,	 1,	 1,	 0,  	0,	0,	0,	0,	0,	0,	0,	0,	0,	0,	0,	0],
		    [36, 5,	0,	200, -200,	 1,	 1,	 1,	 0,  	0,	0,	0,	0,	0,	0,	0,	0,	0,	0,	0,	0],
        [37, 2, 0,	200, -200,	 1,	 1,	 1,	 0,  	0,	0,	0,	0,	0,	0,	0,	0,	0,	0,	0,	0]
    ])

    ppc["MV_nodes"] = array([
      [2,14,26]
    ])

    ppc["LV_Feeder3"] = array([
      [31,32,33,34,35,36,37]
    ])

    # fbus, tbus, r, x, b, rateA, rateB, rateC, ratio, angle, status, angmin, angmax
    ppc["branch"] = array([
		[1, 	   2,	  0.0016,	   0.0023,	      0.01E-008,	            300,	300,	300,	0,	0,	1,	-360,	360],
		[2, 	   14,	0.0040,	   0.0014,	      0.01E-008,	            300,	300,	300,	0,	0,	1,	-360,	360],
		[14, 	   26,	0.0035,	   1.8e-3,	      0.01E-008,	            300,	300,	300,	0,	0,	1,	-360,	360],
		[2,	     3,	  0.0017,	   1e-3,	        0.01E-008,	            300,	300,	300,	0,	0,	1,	-360,	360],
    [3,	     4,	  0.0017,	   1e-3,	        0.01E-008,	            300,	300,	300,	0,	0,	1,	-360,	360],
    [4,	     5,	  0.0017,	   1e-3,	        0.01E-008,	            300,	300,	300,	0,	0,	1,	-360,	360],
		[5,	     6,	  0.0015,	   0.8e-3,	      0.01E-008,	            300,	300,	300,	0,	0,	1,	-360,	360],
		[6,	     7,	  0.0017,	   1e-3,	        0.01E-008,	            300,	300,	300,	0,	0,	1,	-360,	360],
		[7,	     8,	  0.0015,	   0.8e-3,	      0.01E-008,	            300,	300,	300,	0,	0,	1,	-360,	360],
		[8,	     9,	  0.0017,	   1e-3,	        0.01E-008,	            300,	300,	300,	0,	0,	1,	-360,	360],
    [9,	     10,  0.0015,	   0.8e-3,	      0.01E-008,	            300,	300,	300,	0,	0,	1,	-360,	360],
    [10,	   11,  0.0015,	   0.8e-3,	      0.01E-008,	            300,	300,	300,	0,	0,	1,	-360,	360],    
    [11,	   12,  0.0015,	   0.8e-3,	      0.01E-008,	            300,	300,	300,	0,	0,	1,	-360,	360],
    [12,	   13,  0.0017,	   1e-3,	        0.01E-008,	            300,	300,	300,	0,	0,	1,	-360,	360],
    [14,	   15,	0.0017,	   1e-3,	        0.01E-008,	            300,	300,	300,	0,	0,	1,	-360,	360],
    [15,	   16,	0.0017,	   1e-3,	        0.01E-008,	            300,	300,	300,	0,	0,	1,	-360,	360],
    [16,	   17,	0.0017,	   1e-3,	        0.01E-008,	            300,	300,	300,	0,	0,	1,	-360,	360],
		[17,	   18,	0.0015,	   0.8e-3,	      0.01E-008,	            300,	300,	300,	0,	0,	1,	-360,	360],
		[18,	   19,	0.0017,	   1e-3,	        0.01E-008,	            300,	300,	300,	0,	0,	1,	-360,	360],
		[19,	   20,	0.0015,	   0.8e-3,	      0.01E-008,	            300,	300,	300,	0,	0,	1,	-360,	360],
		[19,	   21,	0.0017,	   1e-3,	        0.01E-008,	            300,	300,	300,	0,	0,	1,	-360,	360],
    [20,	   22,  0.0015,	   0.8e-3,	      0.01E-008,	            300,	300,	300,	0,	0,	1,	-360,	360],
    [21,	   23,  0.0015,	   0.8e-3,	      0.01E-008,	            300,	300,	300,	0,	0,	1,	-360,	360],
    [23,	   24,  0.0017,	   1e-3,	        0.01E-008,	            300,	300,	300,	0,	0,	1,	-360,	360],
    [24,	   25,  0.0015,	   0.8e-3,	      0.01E-008,	            300,	300,	300,	0,	0,	1,	-360,	360],
    [26,	   27,	0.0017,	   1e-3,	        0.01E-008,	            300,	300,	300,	0,	0,	1,	-360,	360],
    [27,	   28,	0.0047,	   5e-3,	        0.01E-008,	            300,	300,	300,	0,	0,	1,	-360,	360],
    [28,	   29,	0.0057,	   5e-3,	        0.01E-008,	            300,	300,	300,	0,	0,	1,	-360,	360],
		[29,	   30,	0.0045,	   1.8e-3,	      0.01E-008,	            300,	300,	300,	0,	0,	1,	-360,	360],
		[30,	   31,	0.0017,	   1e-3,	        0.01E-008,	            300,	300,	300,	0,	0,	1,	-360,	360],
		[31,	   32,	0.0045,	   1.8e-3,	      0.01E-008,	            300,	300,	300,	0,	0,	1,	-360,	360],
		[32,	   33,	0.0037,	   5e-3,	        0.01E-008,	            300,	300,	300,	0,	0,	1,	-360,	360],
    [33,	   34,  0.0045,	   1.8e-3,	      0.01E-008,	            300,	300,	300,	0,	0,	1,	-360,	360],
    [34,	   35,  0.0045,	   1.8e-3,	      0.01E-008,	            300,	300,	300,	0,	0,	1,	-360,	360],
    [35,	   36,  0.0037,	   5e-3,	        0.01E-008,	            300,	300,	300,	0,	0,	1,	-360,	360],
    [36,	   37,  0.0045,	   1.8e-3,	      0.01E-008,	            300,	300,	300,	0,	0,	1,	-360,	360]
    ])

    ##-----  OPF Data  -----##
    ## generator cost data
    # 1 startup shutdown n x1 y1 ... xn yn
    # 2 startup shutdown n c(n-1) ... c0
    ppc["gencost"] = array([
        [2, 0, 0, 3, 0.01,      40, 0],
        [2, 0, 0, 3, 0.01,      40, 0],
        [2, 0, 0, 3, 0.01,      40, 0],
        [2, 0, 0, 3, 0.01,      40, 0],
        [2, 0, 0, 3, 0.01,      40, 0],
        [2, 0, 0, 3, 0.01,      40, 0],
        [2, 0, 0, 3, 0.01,      40, 0],
        [2, 0, 0, 3, 0.01,      40, 0],
        [2, 0, 0, 3, 0.01,      40, 0],
        [2, 0, 0, 3, 0.01,      40, 0],
        [2, 0, 0, 3, 0.01,      40, 0],
        [2, 0, 0, 3, 0.01,      40, 0],
        [2, 0, 0, 3, 0.01,      40, 0],
        [2, 0, 0, 3, 0.01,      40, 0],
        [2, 0, 0, 3, 0.01,      40, 0],
        [2, 0, 0, 3, 0.01,      40, 0],
        [2, 0, 0, 3, 0.01,      40, 0],
        [2, 0, 0, 3, 0.01,      40, 0],
        [2, 0, 0, 3, 0.01,      40, 0]
    ])

    return ppc